ELEMENTS
E O N H
END

SPECIES
E 
N2+ O2+ O- NH3+ H2O+
O2(B1) O(1D) N2(A3) N2(B3) N2(C3)
O NH2 NH H H2 OH  
H2O NH3 O2 N2
END

REACTIONS

# Coeffs: k = exp(A + B*log(x) + C/x) where x = E/N in Td, k is in (#,m,s)

# N2 only
E + N2 => E + N2(A3) 	! -3.43087198e+01 -2.37591170e-01 -3.33529090e+02 
E + N2 => E + N2(B3) 	! -3.16706805e+01 -2.72654080e-01 -2.94988465e+02
E + N2 => E + N2(C3) 	! -2.96758327e+01 -4.46849102e-01 -5.05114991e+02
E + N2 => E + E + N2+  	! -37.758177      0.95569483 -678.92456293

# O2 only
E + O2 => E + O2(B1) 		! -3.56852149e+01 -1.78259818e-02 -5.17557015e+01
E + O2 => E + O + O         ! -31.62240782   -0.32415424 -165.37998794
E + O2 => E + O + O(1D)		! -3.27164952e+01  2.36837965e-01 -3.35877385e+02
O2 + E => E + E + O2+       ! -38.65516094    1.07519214 -550.95961489
O2 + E => O + O-            ! -33.53642676   -0.70261689 -104.35582759 

# H2O only
E + H2O => H2 + O-          ! -34.52378244   -0.57396692 -192.68443665
E + H2O => E + H + OH       ! -34.98439163    0.41110142 -305.48930465
E + H2O => E + O + H2       ! -38.24183291    0.80778944 -540.76302513
E + H2O => E + E + H2O+     ! -37.68165041    0.91683131 -651.28559325

# NH3 only
E + NH3 => E + NH2 + H      ! -30.77782517   -0.3535467  -137.41284606
E + NH3 => E + NH + H + H   ! -3.26908826e+01 -1.07443195e-01 -3.40866449e+02
E + NH3 => E + E + NH3+    ! -35.92837012    0.6676854  -408.91753031

END
